500 

 He 0.0  0.0  0.0
 He 0.0  0.55  0.55
 He 0.55  0.55  0.0
 He 0.55  0.0  0.55
 He 0.0  1.1  0.0
 He 0.0  1.65  0.55
 He 0.55  1.65  0.0
 He 0.55  1.1  0.55
 He 0.0  2.2  0.0
 He 0.0  2.75  0.55
 He 0.55  2.75  0.0
 He 0.55  2.2  0.55
 He 0.0  3.3  0.0
 He 0.0  3.85  0.55
 He 0.55  3.85  0.0
 He 0.55  3.3  0.55
 He 0.0  4.4  0.0
 He 0.0  4.95  0.55
 He 0.55  4.95  0.0
 He 0.55  4.4  0.55
 He 0.0  5.5  0.0
 He 0.55  5.5  0.55
 He 1.1  0.0  0.0
 He 1.1  0.55  0.55
 He 1.65  0.55  0.0
 He 1.65  0.0  0.55
 He 1.1  1.1  0.0
 He 1.1  1.65  0.55
 He 1.65  1.65  0.0
 He 1.65  1.1  0.55
 He 1.1  2.2  0.0
 He 1.1  2.75  0.55
 He 1.65  2.75  0.0
 He 1.65  2.2  0.55
 He 1.1  3.3  0.0
 He 1.1  3.85  0.55
 He 1.65  3.85  0.0
 He 1.65  3.3  0.55
 He 1.1  4.4  0.0
 He 1.1  4.95  0.55
 He 1.65  4.95  0.0
 He 1.65  4.4  0.55
 He 1.1  5.5  0.0
 He 1.65  5.5  0.55
 He 2.2  0.0  0.0
 He 2.2  0.55  0.55
 He 2.75  0.55  0.0
 He 2.75  0.0  0.55
 He 2.2  1.1  0.0
 He 2.2  1.65  0.55
 He 2.75  1.65  0.0
 He 2.75  1.1  0.55
 He 2.2  2.2  0.0
 He 2.2  2.75  0.55
 He 2.75  2.75  0.0
 He 2.75  2.2  0.55
 He 2.2  3.3  0.0
 He 2.2  3.85  0.55
 He 2.75  3.85  0.0
 He 2.75  3.3  0.55
 He 2.2  4.4  0.0
 He 2.2  4.95  0.55
 He 2.75  4.95  0.0
 He 2.75  4.4  0.55
 He 2.2  5.5  0.0
 He 2.75  5.5  0.55
 He 3.3  0.0  0.0
 He 3.3  0.55  0.55
 He 3.85  0.55  0.0
 He 3.85  0.0  0.55
 He 3.3  1.1  0.0
 He 3.3  1.65  0.55
 He 3.85  1.65  0.0
 He 3.85  1.1  0.55
 He 3.3  2.2  0.0
 He 3.3  2.75  0.55
 He 3.85  2.75  0.0
 He 3.85  2.2  0.55
 He 3.3  3.3  0.0
 He 3.3  3.85  0.55
 He 3.85  3.85  0.0
 He 3.85  3.3  0.55
 He 3.3  4.4  0.0
 He 3.3  4.95  0.55
 He 3.85  4.95  0.0
 He 3.85  4.4  0.55
 He 3.3  5.5  0.0
 He 3.85  5.5  0.55
 He 4.4  0.0  0.0
 He 4.4  0.55  0.55
 He 4.95  0.55  0.0
 He 4.95  0.0  0.55
 He 4.4  1.1  0.0
 He 4.4  1.65  0.55
 He 4.95  1.65  0.0
 He 4.95  1.1  0.55
 He 4.4  2.2  0.0
 He 4.4  2.75  0.55
 He 4.95  2.75  0.0
 He 4.95  2.2  0.55
 He 4.4  3.3  0.0
 He 4.4  3.85  0.55
 He 4.95  3.85  0.0
 He 4.95  3.3  0.55
 He 4.4  4.4  0.0
 He 4.4  4.95  0.55
 He 4.95  4.95  0.0
 He 4.95  4.4  0.55
 He 4.4  5.5  0.0
 He 4.95  5.5  0.55
 He 5.5  0.0  0.0
 He 5.5  0.55  0.55
 He 5.5  1.1  0.0
 He 5.5  1.65  0.55
 He 5.5  2.2  0.0
 He 5.5  2.75  0.55
 He 5.5  3.3  0.0
 He 5.5  3.85  0.55
 He 5.5  4.4  0.0
 He 5.5  4.95  0.55
 He 5.5  5.5  0.0
 He 0.0  0.0  1.1
 He 0.0  0.55  1.65
 He 0.55  0.55  1.1
 He 0.55  0.0  1.65
 He 0.0  1.1  1.1
 He 0.0  1.65  1.65
 He 0.55  1.65  1.1
 He 0.55  1.1  1.65
 He 0.0  2.2  1.1
 He 0.0  2.75  1.65
 He 0.55  2.75  1.1
 He 0.55  2.2  1.65
 He 0.0  3.3  1.1
 He 0.0  3.85  1.65
 He 0.55  3.85  1.1
 He 0.55  3.3  1.65
 He 0.0  4.4  1.1
 He 0.0  4.95  1.65
 He 0.55  4.95  1.1
 He 0.55  4.4  1.65
 He 0.0  5.5  1.1
 He 0.55  5.5  1.65
 He 1.1  0.0  1.1
 He 1.1  0.55  1.65
 He 1.65  0.55  1.1
 He 1.65  0.0  1.65
 He 1.1  1.1  1.1
 He 1.1  1.65  1.65
 He 1.65  1.65  1.1
 He 1.65  1.1  1.65
 He 1.1  2.2  1.1
 He 1.1  2.75  1.65
 He 1.65  2.75  1.1
 He 1.65  2.2  1.65
 He 1.1  3.3  1.1
 He 1.1  3.85  1.65
 He 1.65  3.85  1.1
 He 1.65  3.3  1.65
 He 1.1  4.4  1.1
 He 1.1  4.95  1.65
 He 1.65  4.95  1.1
 He 1.65  4.4  1.65
 He 1.1  5.5  1.1
 He 1.65  5.5  1.65
 He 2.2  0.0  1.1
 He 2.2  0.55  1.65
 He 2.75  0.55  1.1
 He 2.75  0.0  1.65
 He 2.2  1.1  1.1
 He 2.2  1.65  1.65
 He 2.75  1.65  1.1
 He 2.75  1.1  1.65
 He 2.2  2.2  1.1
 He 2.2  2.75  1.65
 He 2.75  2.75  1.1
 He 2.75  2.2  1.65
 He 2.2  3.3  1.1
 He 2.2  3.85  1.65
 He 2.75  3.85  1.1
 He 2.75  3.3  1.65
 He 2.2  4.4  1.1
 He 2.2  4.95  1.65
 He 2.75  4.95  1.1
 He 2.75  4.4  1.65
 He 2.2  5.5  1.1
 He 2.75  5.5  1.65
 He 3.3  0.0  1.1
 He 3.3  0.55  1.65
 He 3.85  0.55  1.1
 He 3.85  0.0  1.65
 He 3.3  1.1  1.1
 He 3.3  1.65  1.65
 He 3.85  1.65  1.1
 He 3.85  1.1  1.65
 He 3.3  2.2  1.1
 He 3.3  2.75  1.65
 He 3.85  2.75  1.1
 He 3.85  2.2  1.65
 He 3.3  3.3  1.1
 He 3.3  3.85  1.65
 He 3.85  3.85  1.1
 He 3.85  3.3  1.65
 He 3.3  4.4  1.1
 He 3.3  4.95  1.65
 He 3.85  4.95  1.1
 He 3.85  4.4  1.65
 He 3.3  5.5  1.1
 He 3.85  5.5  1.65
 He 4.4  0.0  1.1
 He 4.4  0.55  1.65
 He 4.95  0.55  1.1
 He 4.95  0.0  1.65
 He 4.4  1.1  1.1
 He 4.4  1.65  1.65
 He 4.95  1.65  1.1
 He 4.95  1.1  1.65
 He 4.4  2.2  1.1
 He 4.4  2.75  1.65
 He 4.95  2.75  1.1
 He 4.95  2.2  1.65
 He 4.4  3.3  1.1
 He 4.4  3.85  1.65
 He 4.95  3.85  1.1
 He 4.95  3.3  1.65
 He 4.4  4.4  1.1
 He 4.4  4.95  1.65
 He 4.95  4.95  1.1
 He 4.95  4.4  1.65
 He 4.4  5.5  1.1
 He 4.95  5.5  1.65
 He 5.5  0.0  1.1
 He 5.5  0.55  1.65
 He 5.5  1.1  1.1
 He 5.5  1.65  1.65
 He 5.5  2.2  1.1
 He 5.5  2.75  1.65
 He 5.5  3.3  1.1
 He 5.5  3.85  1.65
 He 5.5  4.4  1.1
 He 5.5  4.95  1.65
 He 5.5  5.5  1.1
 He 0.0  0.0  2.2
 He 0.0  0.55  2.75
 He 0.55  0.55  2.2
 He 0.55  0.0  2.75
 He 0.0  1.1  2.2
 He 0.0  1.65  2.75
 He 0.55  1.65  2.2
 He 0.55  1.1  2.75
 He 0.0  2.2  2.2
 He 0.0  2.75  2.75
 He 0.55  2.75  2.2
 He 0.55  2.2  2.75
 He 0.0  3.3  2.2
 He 0.0  3.85  2.75
 He 0.55  3.85  2.2
 He 0.55  3.3  2.75
 He 0.0  4.4  2.2
 He 0.0  4.95  2.75
 He 0.55  4.95  2.2
 He 0.55  4.4  2.75
 He 0.0  5.5  2.2
 He 0.55  5.5  2.75
 He 1.1  0.0  2.2
 He 1.1  0.55  2.75
 He 1.65  0.55  2.2
 He 1.65  0.0  2.75
 He 1.1  1.1  2.2
 He 1.1  1.65  2.75
 He 1.65  1.65  2.2
 He 1.65  1.1  2.75
 He 1.1  2.2  2.2
 He 1.1  2.75  2.75
 He 1.65  2.75  2.2
 He 1.65  2.2  2.75
 He 1.1  3.3  2.2
 He 1.1  3.85  2.75
 He 1.65  3.85  2.2
 He 1.65  3.3  2.75
 He 1.1  4.4  2.2
 He 1.1  4.95  2.75
 He 1.65  4.95  2.2
 He 1.65  4.4  2.75
 He 1.1  5.5  2.2
 He 1.65  5.5  2.75
 He 2.2  0.0  2.2
 He 2.2  0.55  2.75
 He 2.75  0.55  2.2
 He 2.75  0.0  2.75
 He 2.2  1.1  2.2
 He 2.2  1.65  2.75
 He 2.75  1.65  2.2
 He 2.75  1.1  2.75
 He 2.2  2.2  2.2
 He 2.2  2.75  2.75
 He 2.75  2.75  2.2
 He 2.75  2.2  2.75
 He 2.2  3.3  2.2
 He 2.2  3.85  2.75
 He 2.75  3.85  2.2
 He 2.75  3.3  2.75
 He 2.2  4.4  2.2
 He 2.2  4.95  2.75
 He 2.75  4.95  2.2
 He 2.75  4.4  2.75
 He 2.2  5.5  2.2
 He 2.75  5.5  2.75
 He 3.3  0.0  2.2
 He 3.3  0.55  2.75
 He 3.85  0.55  2.2
 He 3.85  0.0  2.75
 He 3.3  1.1  2.2
 He 3.3  1.65  2.75
 He 3.85  1.65  2.2
 He 3.85  1.1  2.75
 He 3.3  2.2  2.2
 He 3.3  2.75  2.75
 He 3.85  2.75  2.2
 He 3.85  2.2  2.75
 He 3.3  3.3  2.2
 He 3.3  3.85  2.75
 He 3.85  3.85  2.2
 He 3.85  3.3  2.75
 He 3.3  4.4  2.2
 He 3.3  4.95  2.75
 He 3.85  4.95  2.2
 He 3.85  4.4  2.75
 He 3.3  5.5  2.2
 He 3.85  5.5  2.75
 He 4.4  0.0  2.2
 He 4.4  0.55  2.75
 He 4.95  0.55  2.2
 He 4.95  0.0  2.75
 He 4.4  1.1  2.2
 He 4.4  1.65  2.75
 He 4.95  1.65  2.2
 He 4.95  1.1  2.75
 He 4.4  2.2  2.2
 He 4.4  2.75  2.75
 He 4.95  2.75  2.2
 He 4.95  2.2  2.75
 He 4.4  3.3  2.2
 He 4.4  3.85  2.75
 He 4.95  3.85  2.2
 He 4.95  3.3  2.75
 He 4.4  4.4  2.2
 He 4.4  4.95  2.75
 He 4.95  4.95  2.2
 He 4.95  4.4  2.75
 He 4.4  5.5  2.2
 He 4.95  5.5  2.75
 He 5.5  0.0  2.2
 He 5.5  0.55  2.75
 He 5.5  1.1  2.2
 He 5.5  1.65  2.75
 He 5.5  2.2  2.2
 He 5.5  2.75  2.75
 He 5.5  3.3  2.2
 He 5.5  3.85  2.75
 He 5.5  4.4  2.2
 He 5.5  4.95  2.75
 He 5.5  5.5  2.2
 He 0.0  0.0  3.3
 He 0.0  0.55  3.85
 He 0.55  0.55  3.3
 He 0.55  0.0  3.85
 He 0.0  1.1  3.3
 He 0.0  1.65  3.85
 He 0.55  1.65  3.3
 He 0.55  1.1  3.85
 He 0.0  2.2  3.3
 He 0.0  2.75  3.85
 He 0.55  2.75  3.3
 He 0.55  2.2  3.85
 He 0.0  3.3  3.3
 He 0.0  3.85  3.85
 He 0.55  3.85  3.3
 He 0.55  3.3  3.85
 He 0.0  4.4  3.3
 He 0.0  4.95  3.85
 He 0.55  4.95  3.3
 He 0.55  4.4  3.85
 He 0.0  5.5  3.3
 He 0.55  5.5  3.85
 He 1.1  0.0  3.3
 He 1.1  0.55  3.85
 He 1.65  0.55  3.3
 He 1.65  0.0  3.85
 He 1.1  1.1  3.3
 He 1.1  1.65  3.85
 He 1.65  1.65  3.3
 He 1.65  1.1  3.85
 He 1.1  2.2  3.3
 He 1.1  2.75  3.85
 He 1.65  2.75  3.3
 He 1.65  2.2  3.85
 He 1.1  3.3  3.3
 He 1.1  3.85  3.85
 He 1.65  3.85  3.3
 He 1.65  3.3  3.85
 He 1.1  4.4  3.3
 He 1.1  4.95  3.85
 He 1.65  4.95  3.3
 He 1.65  4.4  3.85
 He 1.1  5.5  3.3
 He 1.65  5.5  3.85
 He 2.2  0.0  3.3
 He 2.2  0.55  3.85
 He 2.75  0.55  3.3
 He 2.75  0.0  3.85
 He 2.2  1.1  3.3
 He 2.2  1.65  3.85
 He 2.75  1.65  3.3
 He 2.75  1.1  3.85
 He 2.2  2.2  3.3
 He 2.2  2.75  3.85
 He 2.75  2.75  3.3
 He 2.75  2.2  3.85
 He 2.2  3.3  3.3
 He 2.2  3.85  3.85
 He 2.75  3.85  3.3
 He 2.75  3.3  3.85
 He 2.2  4.4  3.3
 He 2.2  4.95  3.85
 He 2.75  4.95  3.3
 He 2.75  4.4  3.85
 He 2.2  5.5  3.3
 He 2.75  5.5  3.85
 He 3.3  0.0  3.3
 He 3.3  0.55  3.85
 He 3.85  0.55  3.3
 He 3.85  0.0  3.85
 He 3.3  1.1  3.3
 He 3.3  1.65  3.85
 He 3.85  1.65  3.3
 He 3.85  1.1  3.85
 He 3.3  2.2  3.3
 He 3.3  2.75  3.85
 He 3.85  2.75  3.3
 He 3.85  2.2  3.85
 He 3.3  3.3  3.3
 He 3.3  3.85  3.85
 He 3.85  3.85  3.3
 He 3.85  3.3  3.85
 He 3.3  4.4  3.3
 He 3.3  4.95  3.85
 He 3.85  4.95  3.3
 He 3.85  4.4  3.85
 He 3.3  5.5  3.3
 He 3.85  5.5  3.85
 He 4.4  0.0  3.3
 He 4.4  0.55  3.85
 He 4.95  0.55  3.3
 He 4.95  0.0  3.85
 He 4.4  1.1  3.3
 He 4.4  1.65  3.85
 He 4.95  1.65  3.3
 He 4.95  1.1  3.85
 He 4.4  2.2  3.3
 He 4.4  2.75  3.85
 He 4.95  2.75  3.3
 He 4.95  2.2  3.85
 He 4.4  3.3  3.3
 He 4.4  3.85  3.85
 He 4.95  3.85  3.3
 He 4.95  3.3  3.85
 He 4.4  4.4  3.3
 He 4.4  4.95  3.85
 He 4.95  4.95  3.3
 He 4.95  4.4  3.85
 He 4.4  5.5  3.3
 He 4.95  5.5  3.85
 He 5.5  0.0  3.3
 He 5.5  0.55  3.85
 He 5.5  1.1  3.3
 He 5.5  1.65  3.85
 He 5.5  2.2  3.3
 He 5.5  2.75  3.85
 He 5.5  3.3  3.3
 He 5.5  3.85  3.85
 He 5.5  4.4  3.3
 He 5.5  4.95  3.85
 He 5.5  5.5  3.3
 He 0.0  0.0  4.4
 He 0.0  0.55  4.95
 He 0.55  0.55  4.4
 He 0.55  0.0  4.95
 He 0.0  1.1  4.4
 He 0.0  1.65  4.95
 He 0.55  1.65  4.4
 He 0.55  1.1  4.95
 He 0.0  2.2  4.4
 He 0.0  2.75  4.95
 He 0.55  2.75  4.4
 He 0.55  2.2  4.95
 He 0.0  3.3  4.4
 He 0.0  3.85  4.95
 He 0.55  3.85  4.4
 He 0.55  3.3  4.95